test/data/three_phase/center_tap_xfmr/result_special_fixed.csv
# result_special_fixed.csv run at 2000-01-01 00:00:00 EST on 16 powerflow objects (not all are nodes)
node_name,voltA_real,voltA_imag,voltB_real,voltB_imag,voltC_real,voltC_imag
R1-12-47-1_node_617,7216.880000,0.000000,-3608.440000,-6250.000000,-3608.440000,6250.000000
R1-12-47-1_node_612,7216.880000,0.000000,-3608.440000,-6250.000000,-3608.440115,6249.999993
R1-12-47-1_node_3,7216.893313,-0.022095,-3608.426687,-6250.022095,-3608.406708,6249.931439
R1-12-47-1_tn_556,-60.347844,101.399247,-60.347844,101.399247,0.000000,0.000000
R1-12-47-1_tn_5561,-60.420072,101.282654,-60.420072,101.282654,0.000000,0.000000
